// File: spectre/curr_mirror_2.sp.pex
// Created: Thu Mar  5 05:16:16 2026
// Program "Calibre xRC"
// Version "v2020.2_14.12"
// Nominal Temperature: 27C
// Circuit Temperature: 27C
// 
simulator lang=spectre
subckt PM_CURR_MIRROR_2\%VDD ( 312 318 329 760 769 795 833 867 905 938 1809 \
 1816 1818 1827 1836 1845 1854 1863 1872 1881 1890 1899 1908 1917 1924 1926 \
 1935 1944 1953 1962 1971 1980 1988 1989 1998 2007 2016 2025 2034 2043 2052 \
 2061 2070 2079 2088 2097 2106 2115 2124 3096 3098 3100 3102 3104 3106 3108 \
 3110 3112 3114 3116 3118 3120 3122 3124 3126 3128 3130 3132 3134 3136 3138 \
 3140 3142 3144 3146 3148 3150 3152 3154 3156 3158 3160 3162 3164 3166 3168 \
 3170 3172 3174 3176 3177 3178 3179 3180 3181 3182 3183 3184 3185 3186 3187 \
 3188 3189 3190 3191 3192 3193 3194 3195 3196 3199 3202 3205 3208 3211 3214 \
 3217 3218 3220 3221 3223 3224 3226 3227 3229 3230 3232 3233 3235 3236 3238 \
 3241 3244 3247 3250 3253 3256 3259 3262 3265 3268 3269 3271 3272 3274 3275 \
 3277 3280 3283 3286 3289 3292 3295 3296 3298 3299 3301 3302 3304 3307 3310 \
 3313 3316 3319 3322 3325 3328 3331 3334 3335 3337 3338 3340 3341 3343 3344 \
 3346 3347 3349 3350 3352 3353 3355 3358 3361 3364 3367 3370 3373 3409 3724 \
 3726 4114 4116 4119 4168 4266 4675 VSS )
c35 ( 5055 VSS ) capacitor c=0.496545f
c36 ( 5040 VSS ) capacitor c=0.338777f
c37 ( 5026 VSS ) capacitor c=0.218666f
c38 ( 5021 VSS ) capacitor c=0.1896f
c39 ( 5009 VSS ) capacitor c=0.123294f
c40 ( 4949 VSS ) capacitor c=0.287959f
c41 ( 4906 VSS ) capacitor c=0.103356f
c42 ( 4675 VSS ) capacitor c=2.15885f
c43 ( 4665 VSS ) capacitor c=2.55458f
c44 ( 4598 VSS ) capacitor c=0.285884f
c45 ( 4495 VSS ) capacitor c=0.410988f
c46 ( 4491 VSS ) capacitor c=1.0668f
c47 ( 4487 VSS ) capacitor c=1.06173f
c48 ( 4358 VSS ) capacitor c=0.187899f
c49 ( 4316 VSS ) capacitor c=0.507608f
c50 ( 4269 VSS ) capacitor c=0.141594f
c51 ( 4266 VSS ) capacitor c=0.244551f
c52 ( 4195 VSS ) capacitor c=0.553063f
c53 ( 4168 VSS ) capacitor c=0.215399f
c54 ( 4146 VSS ) capacitor c=0.25221f
c55 ( 4129 VSS ) capacitor c=0.366411f
c56 ( 4125 VSS ) capacitor c=0.109614f
c57 ( 4119 VSS ) capacitor c=0.295554f
c58 ( 4116 VSS ) capacitor c=0.278677f
c59 ( 4114 VSS ) capacitor c=0.398847f
c60 ( 4111 VSS ) capacitor c=0.149029f
c61 ( 4104 VSS ) capacitor c=0.108284f
c62 ( 4101 VSS ) capacitor c=0.334143f
c63 ( 3925 VSS ) capacitor c=0.3917f
c64 ( 3808 VSS ) capacitor c=0.188832f
c65 ( 3780 VSS ) capacitor c=0.172151f
c66 ( 3757 VSS ) capacitor c=0.203686f
c67 ( 3724 VSS ) capacitor c=0.388068f
c68 ( 3692 VSS ) capacitor c=0.120599f
c69 ( 3558 VSS ) capacitor c=0.168511f
c70 ( 3417 VSS ) capacitor c=0.403868f
c71 ( 2124 VSS ) capacitor c=1.06947f
c72 ( 2115 VSS ) capacitor c=0.200131f
c73 ( 2106 VSS ) capacitor c=0.270728f
c74 ( 2097 VSS ) capacitor c=0.241794f
c75 ( 2088 VSS ) capacitor c=0.219943f
c76 ( 2079 VSS ) capacitor c=0.226374f
c77 ( 2077 VSS ) capacitor c=0.20727f
c78 ( 2070 VSS ) capacitor c=0.221212f
c79 ( 2061 VSS ) capacitor c=0.217711f
c80 ( 2052 VSS ) capacitor c=0.221212f
c81 ( 2043 VSS ) capacitor c=0.217711f
c82 ( 2034 VSS ) capacitor c=0.221212f
c83 ( 2025 VSS ) capacitor c=0.217711f
c84 ( 2016 VSS ) capacitor c=0.221212f
c85 ( 2007 VSS ) capacitor c=0.217711f
c86 ( 1998 VSS ) capacitor c=0.225214f
c87 ( 1996 VSS ) capacitor c=0.821164f
c88 ( 1989 VSS ) capacitor c=0.223463f
c89 ( 1988 VSS ) capacitor c=0.415256f
c90 ( 1985 VSS ) capacitor c=0.398877f
c91 ( 1980 VSS ) capacitor c=0.221683f
c92 ( 1978 VSS ) capacitor c=0.285574f
c93 ( 1971 VSS ) capacitor c=0.271826f
c94 ( 1969 VSS ) capacitor c=0.243004f
c95 ( 1962 VSS ) capacitor c=0.221067f
c96 ( 1960 VSS ) capacitor c=0.293433f
c97 ( 1953 VSS ) capacitor c=0.219032f
c98 ( 1951 VSS ) capacitor c=0.250089f
c99 ( 1944 VSS ) capacitor c=0.223893f
c100 ( 1935 VSS ) capacitor c=0.236154f
c101 ( 1926 VSS ) capacitor c=0.24588f
c102 ( 1917 VSS ) capacitor c=0.319834f
c103 ( 1915 VSS ) capacitor c=0.193331f
c104 ( 1908 VSS ) capacitor c=0.274391f
c105 ( 1900 VSS ) capacitor c=0.120549f
c106 ( 1899 VSS ) capacitor c=0.270144f
c107 ( 1890 VSS ) capacitor c=0.366522f
c108 ( 1881 VSS ) capacitor c=0.274232f
c109 ( 1872 VSS ) capacitor c=0.274232f
c110 ( 1863 VSS ) capacitor c=0.274232f
c111 ( 1854 VSS ) capacitor c=0.274232f
c112 ( 1845 VSS ) capacitor c=0.274232f
c113 ( 1836 VSS ) capacitor c=0.274232f
c114 ( 1827 VSS ) capacitor c=0.274232f
c115 ( 1818 VSS ) capacitor c=0.276482f
c116 ( 1816 VSS ) capacitor c=0.51399f
c117 ( 1809 VSS ) capacitor c=0.276482f
c118 ( 1807 VSS ) capacitor c=0.5771f
c119 ( 1659 VSS ) capacitor c=0.221334f
c120 ( 1613 VSS ) capacitor c=0.290191f
c121 ( 1343 VSS ) capacitor c=0.612179f
c122 ( 1055 VSS ) capacitor c=0.932487f
c123 ( 722 VSS ) capacitor c=0.991049f
c124 ( 578 VSS ) capacitor c=0.499333f
c125 ( 434 VSS ) capacitor c=0.411812f
c126 ( 95 VSS ) capacitor c=1.54059f
c127 ( 39 VSS ) capacitor c=0.101297f
c128 ( 1 VSS ) capacitor c=0.269921f
r129 (  5218 5221 ) resistor r=0.0139919
r130 (  5213 5218 ) resistor r=0.0139919
r131 (  5210 5213 ) resistor r=0.0559676
r132 (  5206 5210 ) resistor r=0.0559676
r133 (  5177 5178 ) resistor r=0.75
r134 (  5085 5086 ) resistor r=0.75
r135 (  5055 5221 ) resistor r=0.188638
r136 (  5055 5218 ) resistor r=0.166667
r137 (  5050 5055 ) resistor r=0.0219718
r138 (  5050 5213 ) resistor r=0.166667
r139 (  5050 5213 ) resistor r=0.0542169
r140 (  5045 5210 ) resistor r=0.0542169
r141 (  5040 5206 ) resistor r=0.0542169
r142 (  5037 5202 ) resistor r=1.5
r143 (  5034 5194 ) resistor r=1.5
r144 (  5031 5186 ) resistor r=1.5
r145 (  5026 5173 ) resistor r=1.5
r146 (  5021 5158 ) resistor r=1.5
r147 (  5018 5154 ) resistor r=1.5
r148 (  5015 5146 ) resistor r=1.5
r149 (  5009 5127 ) resistor r=1.5
r150 (  5006 5118 ) resistor r=1.5
r151 (  5003 5110 ) resistor r=1.5
r152 (  5000 5102 ) resistor r=1.5
r153 (  4997 5094 ) resistor r=1.5
r154 (  4949 5168 ) resistor r=1.5
r155 (  4919 5137 ) resistor r=1.5
r156 (  4906 5132 ) resistor r=1.5
r157 (  4855 5122 ) resistor r=1.5
r158 (  4756 5050 ) resistor r=0.0201408
r159 (  4754 4756 ) resistor r=0.0366196
r160 (  4754 5045 ) resistor r=0.0311267
r161 (  4752 5045 ) resistor r=0.0238028
r162 (  4750 4752 ) resistor r=0.0549295
r163 (  4750 5040 ) resistor r=0.00915491
r164 (  4694 5221 ) resistor r=0.166667
r165 (  4691 4694 ) resistor r=0.0139919
r166 (  4691 5218 ) resistor r=0.166667
r167 (  4689 5210 ) resistor r=0.0542169
r168 (  4688 4694 ) resistor r=0.213993
r169 (  4688 4691 ) resistor r=0.166667
r170 (  4688 4689 ) resistor r=0.0542169
r171 (  4685 4688 ) resistor r=0.00946529
r172 (  4683 4691 ) resistor r=0.0139919
r173 (  4683 4689 ) resistor r=0.0559676
r174 (  4683 5213 ) resistor r=0.166667
r175 (  4683 5213 ) resistor r=0.0542169
r176 (  4683 4685 ) resistor r=0.166667
r177 (  4682 4685 ) resistor r=0.00946529
r178 (  4682 4683 ) resistor r=0.0542169
r179 (  4680 4689 ) resistor r=0.0559676
r180 (  4680 5206 ) resistor r=0.0542169
r181 (  4679 4682 ) resistor r=0.0189306
r182 (  4679 4680 ) resistor r=0.0542169
r183 (  4673 4675 ) resistor r=0.0920451
r184 (  4671 4673 ) resistor r=0.0920451
r185 (  4669 4671 ) resistor r=0.0920451
r186 (  4666 4669 ) resistor r=0.0920451
r187 (  4665 4679 ) resistor r=0.959307
r188 (  4665 4675 ) resistor r=0.592045
r189 (  4665 4675 ) resistor r=0.25
r190 (  4665 4673 ) resistor r=0.25
r191 (  4665 4671 ) resistor r=0.25
r192 (  4665 4669 ) resistor r=0.25
r193 (  4665 4666 ) resistor r=0.25
r194 (  4662 4666 ) resistor r=0.923328
r195 (  4662 5177 ) resistor r=0.0757455
r196 (  4661 4662 ) resistor r=0.75
r197 (  4646 5202 ) resistor r=1.5
r198 (  4645 4646 ) resistor r=1.5
r199 (  4626 5194 ) resistor r=1.5
r200 (  4625 4626 ) resistor r=1.5
r201 (  4620 5186 ) resistor r=1.5
r202 (  4619 4620 ) resistor r=1.5
r203 (  4611 5177 ) resistor r=0.0776631
r204 (  4610 4611 ) resistor r=0.75
r205 (  4608 5173 ) resistor r=1.5
r206 (  4607 4610 ) resistor r=2.79457
r207 (  4607 4608 ) resistor r=1.5
r208 (  4605 5168 ) resistor r=1.5
r209 (  4604 4607 ) resistor r=2.90998
r210 (  4604 4605 ) resistor r=1.5
r211 (  4602 5163 ) resistor r=1.5
r212 (  4601 4604 ) resistor r=2.90345
r213 (  4601 4602 ) resistor r=1.5
r214 (  4599 5158 ) resistor r=1.5
r215 (  4598 4601 ) resistor r=2.89982
r216 (  4598 4599 ) resistor r=1.5
r217 (  4590 5154 ) resistor r=1.5
r218 (  4589 4590 ) resistor r=1.5
r219 (  4584 5146 ) resistor r=1.5
r220 (  4583 4584 ) resistor r=1.5
r221 (  4575 5137 ) resistor r=1.5
r222 (  4574 4575 ) resistor r=1.5
r223 (  4571 5132 ) resistor r=1.5
r224 (  4570 4574 ) resistor r=0.75618
r225 (  4570 4571 ) resistor r=1.5
r226 (  4567 4611 ) resistor r=4.69027
r227 (  4567 5085 ) resistor r=0.0757455
r228 (  4566 4567 ) resistor r=0.75
r229 (  4564 5127 ) resistor r=1.5
r230 (  4563 4566 ) resistor r=2.992
r231 (  4563 4564 ) resistor r=1.5
r232 (  4561 5122 ) resistor r=1.5
r233 (  4560 4563 ) resistor r=3.096
r234 (  4560 4561 ) resistor r=1.5
r235 (  4558 5118 ) resistor r=1.5
r236 (  4557 4560 ) resistor r=1.75018
r237 (  4557 4558 ) resistor r=1.5
r238 (  4546 5110 ) resistor r=1.5
r239 (  4545 4546 ) resistor r=1.5
r240 (  4540 5102 ) resistor r=1.5
r241 (  4539 4540 ) resistor r=1.5
r242 (  4534 5094 ) resistor r=1.5
r243 (  4533 4534 ) resistor r=1.5
r244 (  4525 5085 ) resistor r=0.0776631
r245 (  4524 4525 ) resistor r=0.75
r246 (  4509 5081 ) resistor r=1.5
r247 (  4508 4509 ) resistor r=1.5
r248 (  4506 5076 ) resistor r=1.5
r249 (  4505 4508 ) resistor r=2.90345
r250 (  4505 4506 ) resistor r=1.5
r251 (  4503 5071 ) resistor r=1.5
r252 (  4502 4505 ) resistor r=2.90345
r253 (  4502 4503 ) resistor r=1.5
r254 (  4500 5066 ) resistor r=1.5
r255 (  4499 4502 ) resistor r=2.90345
r256 (  4499 4500 ) resistor r=1.5
r257 (  4496 5061 ) resistor r=1.5
r258 (  4495 4499 ) resistor r=2.90345
r259 (  4495 4496 ) resistor r=1.5
r260 (  4491 4525 ) resistor r=1.03263
r261 (  4488 4491 ) resistor r=0.0920451
r262 (  4487 4491 ) resistor r=0.502386
r263 (  4487 4488 ) resistor r=0.25
r264 (  4485 4488 ) resistor r=0.0920451
r265 (  4484 4487 ) resistor r=0.00238598
r266 (  4484 4485 ) resistor r=0.25
r267 (  4482 4485 ) resistor r=0.0920451
r268 (  4481 4484 ) resistor r=0.00238598
r269 (  4481 4482 ) resistor r=0.25
r270 (  4479 4482 ) resistor r=0.0920451
r271 (  4478 4481 ) resistor r=0.00238598
r272 (  4478 4479 ) resistor r=0.344431
r273 (  4478 4479 ) resistor r=0.25
r274 (  4381 5178 ) resistor r=2.2799
r275 (  4381 4382 ) resistor r=0.75
r276 (  4378 4381 ) resistor r=0.287256
r277 (  4365 4366 ) resistor r=0.75
r278 (  4362 4365 ) resistor r=0.287256
r279 (  4357 4362 ) resistor r=0.380553
r280 (  4357 4358 ) resistor r=1.5
r281 (  4348 4378 ) resistor r=2.77715
r282 (  4348 4349 ) resistor r=0.75
r283 (  4345 4348 ) resistor r=0.306633
r284 (  4340 4345 ) resistor r=2.7845
r285 (  4340 4341 ) resistor r=0.75
r286 (  4337 4340 ) resistor r=0.306633
r287 (  4332 4337 ) resistor r=2.78526
r288 (  4332 4333 ) resistor r=0.75
r289 (  4329 4365 ) resistor r=2.7772
r290 (  4329 4332 ) resistor r=0.306633
r291 (  4324 4357 ) resistor r=2.39655
r292 (  4324 4325 ) resistor r=0.75
r293 (  4321 4324 ) resistor r=0.306633
r294 (  4316 4321 ) resistor r=2.78526
r295 (  4316 4317 ) resistor r=0.75
r296 (  4299 4300 ) resistor r=0.5
r297 (  4296 4299 ) resistor r=0.379395
r298 (  4296 4297 ) resistor r=0.5
r299 (  4293 4296 ) resistor r=0.379395
r300 (  4293 4294 ) resistor r=0.5
r301 (  4290 4293 ) resistor r=1.15083
r302 (  4290 4291 ) resistor r=0.5
r303 (  4287 4290 ) resistor r=0.379395
r304 (  4287 4288 ) resistor r=0.5
r305 (  4284 4287 ) resistor r=0.379395
r306 (  4284 4285 ) resistor r=0.5
r307 (  4281 4284 ) resistor r=1.06547
r308 (  4281 4282 ) resistor r=0.5
r309 (  4278 4281 ) resistor r=0.379395
r310 (  4278 4279 ) resistor r=0.5
r311 (  4275 4278 ) resistor r=0.379395
r312 (  4275 4276 ) resistor r=0.5
r313 (  4272 4275 ) resistor r=1.08444
r314 (  4272 4273 ) resistor r=0.5
r315 (  4269 4272 ) resistor r=0.379395
r316 (  4269 4270 ) resistor r=0.5
r317 (  4266 4269 ) resistor r=0.879395
r318 (  4257 5086 ) resistor r=2.2799
r319 (  4257 4258 ) resistor r=0.75
r320 (  4254 4257 ) resistor r=0.287256
r321 (  4247 4254 ) resistor r=2.76904
r322 (  4247 4248 ) resistor r=0.75
r323 (  4244 4247 ) resistor r=0.287256
r324 (  4237 4244 ) resistor r=2.76832
r325 (  4237 4238 ) resistor r=0.75
r326 (  4234 4237 ) resistor r=0.287256
r327 (  4227 4234 ) resistor r=2.76904
r328 (  4227 4228 ) resistor r=0.75
r329 (  4224 4227 ) resistor r=0.287256
r330 (  4211 4224 ) resistor r=2.7771
r331 (  4211 4212 ) resistor r=0.75
r332 (  4208 4211 ) resistor r=0.306633
r333 (  4203 4208 ) resistor r=2.78526
r334 (  4203 4204 ) resistor r=0.75
r335 (  4200 4203 ) resistor r=0.306633
r336 (  4195 4200 ) resistor r=2.78526
r337 (  4195 4196 ) resistor r=0.75
r338 (  4170 4949 ) resistor r=2.86354
r339 (  4168 5021 ) resistor r=2.87998
r340 (  4166 4167 ) resistor r=0.333631
r341 (  4151 4155 ) resistor r=0.0390695
r342 (  4148 4151 ) resistor r=0.0390695
r343 (  4146 4148 ) resistor r=0.00195347
r344 (  4143 4145 ) resistor r=0.0306044
r345 (  4140 4143 ) resistor r=0.0390695
r346 (  4137 4140 ) resistor r=0.0237673
r347 (  4134 4136 ) resistor r=0.0074232
r348 (  4134 4135 ) resistor r=8.66667
r349 (  4132 4135 ) resistor r=5.064
r350 (  4131 4134 ) resistor r=0.0390695
r351 (  4131 4132 ) resistor r=8.66667
r352 (  4129 4131 ) resistor r=0.0137394
r353 (  4128 4132 ) resistor r=5.064
r354 (  4127 4129 ) resistor r=0.0253301
r355 (  4127 4128 ) resistor r=8.66667
r356 (  4125 4127 ) resistor r=0.00690228
r357 (  4109 4111 ) resistor r=0.0253301
r358 (  4109 4110 ) resistor r=8.66667
r359 (  4107 4110 ) resistor r=5.064
r360 (  4106 4109 ) resistor r=0.0390695
r361 (  4106 4107 ) resistor r=8.66667
r362 (  4104 4106 ) resistor r=0.0114604
r363 (  3925 5040 ) resistor r=0.0338796
r364 (  3922 3925 ) resistor r=0.0390695
r365 (  3919 3922 ) resistor r=0.0390695
r366 (  3916 3919 ) resistor r=0.0390695
r367 (  3913 3916 ) resistor r=0.0390695
r368 (  3910 3913 ) resistor r=0.0390695
r369 (  3907 3910 ) resistor r=0.0390695
r370 (  3904 3907 ) resistor r=0.0390695
r371 (  3901 3904 ) resistor r=0.0390695
r372 (  3898 3901 ) resistor r=0.0390695
r373 (  3895 3898 ) resistor r=0.0390695
r374 (  3892 3895 ) resistor r=0.0390695
r375 (  3889 3892 ) resistor r=0.0390695
r376 (  3886 3889 ) resistor r=0.0390695
r377 (  3883 4161 ) resistor r=0.034798
r378 (  3883 3886 ) resistor r=0.0390695
r379 (  3808 4161 ) resistor r=0.00810049
r380 (  3805 3808 ) resistor r=0.0390695
r381 (  3802 3805 ) resistor r=0.0390695
r382 (  3799 3802 ) resistor r=0.0390695
r383 (  3796 4155 ) resistor r=0.0390695
r384 (  3796 3799 ) resistor r=0.0390695
r385 (  3780 4146 ) resistor r=0.037116
r386 (  3777 3780 ) resistor r=0.0390695
r387 (  3774 3777 ) resistor r=0.0390695
r388 (  3771 3774 ) resistor r=0.0390695
r389 (  3768 4145 ) resistor r=0.00846506
r390 (  3768 3771 ) resistor r=0.0390695
r391 (  3757 4137 ) resistor r=0.0153022
r392 (  3757 3758 ) resistor r=8.66667
r393 (  3755 3758 ) resistor r=5.05556
r394 (  3754 3757 ) resistor r=0.0390044
r395 (  3754 3755 ) resistor r=8.66667
r396 (  3752 3755 ) resistor r=5.064
r397 (  3751 3754 ) resistor r=0.0390695
r398 (  3751 3752 ) resistor r=8.66667
r399 (  3749 3752 ) resistor r=5.064
r400 (  3748 3751 ) resistor r=0.0390695
r401 (  3748 3749 ) resistor r=8.66667
r402 (  3746 3749 ) resistor r=5.064
r403 (  3746 4135 ) resistor r=5.064
r404 (  3745 4136 ) resistor r=0.0316463
r405 (  3745 3748 ) resistor r=0.0390695
r406 (  3745 3746 ) resistor r=8.66667
r407 (  3724 4129 ) resistor r=8.74898
r408 (  3693 4128 ) resistor r=5.064
r409 (  3692 4125 ) resistor r=0.0321672
r410 (  3692 3693 ) resistor r=8.66667
r411 (  3690 3693 ) resistor r=5.064
r412 (  3689 3692 ) resistor r=0.0390695
r413 (  3689 3690 ) resistor r=8.66667
r414 (  3687 3690 ) resistor r=5.064
r415 (  3686 3689 ) resistor r=0.0390695
r416 (  3686 3687 ) resistor r=8.66667
r417 (  3684 3687 ) resistor r=5.064
r418 (  3683 3686 ) resistor r=0.0390695
r419 (  3683 3684 ) resistor r=8.66667
r420 (  3681 3684 ) resistor r=5.064
r421 (  3681 4110 ) resistor r=5.064
r422 (  3680 4111 ) resistor r=0.0137394
r423 (  3680 3683 ) resistor r=0.0390695
r424 (  3680 3681 ) resistor r=8.66667
r425 (  3559 4107 ) resistor r=5.064
r426 (  3558 4104 ) resistor r=0.0276091
r427 (  3558 3559 ) resistor r=8.66667
r428 (  3556 3559 ) resistor r=5.064
r429 (  3555 3558 ) resistor r=0.0390695
r430 (  3555 3556 ) resistor r=8.66667
r431 (  3553 3556 ) resistor r=5.064
r432 (  3552 3555 ) resistor r=0.0390695
r433 (  3552 3553 ) resistor r=8.66667
r434 (  3550 3553 ) resistor r=5.064
r435 (  3549 3552 ) resistor r=0.0390695
r436 (  3549 3550 ) resistor r=8.66667
r437 (  3547 3550 ) resistor r=5.064
r438 (  3546 4101 ) resistor r=0.0188146
r439 (  3546 3549 ) resistor r=0.0390695
r440 (  3546 3547 ) resistor r=8.66667
r441 (  3418 3547 ) resistor r=5.064
r442 (  3417 4101 ) resistor r=0.0225913
r443 (  3417 3418 ) resistor r=8.66667
r444 (  3415 3418 ) resistor r=5.064
r445 (  3414 3417 ) resistor r=0.0390695
r446 (  3414 3415 ) resistor r=8.66667
r447 (  3412 3415 ) resistor r=5.064
r448 (  3411 3414 ) resistor r=0.0390695
r449 (  3411 3412 ) resistor r=8.66667
r450 (  3409 3411 ) resistor r=0.0300184
r451 (  3407 3412 ) resistor r=5.064
r452 (  3406 3409 ) resistor r=0.0090511
r453 (  3406 3407 ) resistor r=8.66667
r454 (  3404 3407 ) resistor r=5.064
r455 (  3403 3406 ) resistor r=0.0390695
r456 (  3403 3404 ) resistor r=8.66667
r457 (  3401 3404 ) resistor r=5.064
r458 (  3400 3403 ) resistor r=0.0390695
r459 (  3400 3401 ) resistor r=8.66667
r460 (  3398 3401 ) resistor r=5.064
r461 (  3397 3400 ) resistor r=0.0390695
r462 (  3397 3398 ) resistor r=8.66667
r463 (  3395 3398 ) resistor r=5.064
r464 (  3394 3397 ) resistor r=0.0390695
r465 (  3394 3395 ) resistor r=8.66667
r466 (  3392 3395 ) resistor r=5.064
r467 (  3391 3394 ) resistor r=0.0390695
r468 (  3391 3392 ) resistor r=8.66667
r469 (  3389 3392 ) resistor r=5.064
r470 (  3388 3391 ) resistor r=0.0390695
r471 (  3388 3389 ) resistor r=8.66667
r472 (  3386 3389 ) resistor r=5.064
r473 (  3385 3388 ) resistor r=0.0390695
r474 (  3385 3386 ) resistor r=8.66667
r475 (  3383 3386 ) resistor r=5.064
r476 (  3382 3385 ) resistor r=0.0390695
r477 (  3382 3383 ) resistor r=8.66667
r478 (  3379 3382 ) resistor r=8.70606
r479 (  3379 3383 ) resistor r=5.1062
r480 (  3175 4756 ) resistor r=26
r481 (  3175 4754 ) resistor r=8.66667
r482 (  3175 4752 ) resistor r=8.66667
r483 (  3175 4750 ) resistor r=8.66667
r484 (  3175 3758 ) resistor r=3.3338
r485 (  3175 4155 ) resistor r=8.66667
r486 (  3175 4151 ) resistor r=8.66667
r487 (  3175 4148 ) resistor r=8.66667
r488 (  3175 4143 ) resistor r=8.66667
r489 (  3175 4140 ) resistor r=8.66667
r490 (  3175 3925 ) resistor r=8.66667
r491 (  3175 3922 ) resistor r=8.66667
r492 (  3175 3919 ) resistor r=8.66667
r493 (  3175 3916 ) resistor r=8.66667
r494 (  3175 3913 ) resistor r=8.66667
r495 (  3175 3910 ) resistor r=8.66667
r496 (  3175 3907 ) resistor r=8.66667
r497 (  3175 3904 ) resistor r=8.66667
r498 (  3175 3901 ) resistor r=8.66667
r499 (  3175 3898 ) resistor r=8.66667
r500 (  3175 3895 ) resistor r=8.66667
r501 (  3175 3892 ) resistor r=8.66667
r502 (  3175 3889 ) resistor r=8.66667
r503 (  3175 3886 ) resistor r=8.66667
r504 (  3175 3883 ) resistor r=8.66667
r505 (  3175 3808 ) resistor r=8.66667
r506 (  3175 3805 ) resistor r=8.66667
r507 (  3175 3802 ) resistor r=8.66667
r508 (  3175 3799 ) resistor r=8.66667
r509 (  3175 3796 ) resistor r=8.66667
r510 (  3175 3780 ) resistor r=8.66667
r511 (  3175 3777 ) resistor r=8.66667
r512 (  3175 3774 ) resistor r=8.66667
r513 (  3175 3771 ) resistor r=8.66667
r514 (  3175 3768 ) resistor r=8.66667
r515 (  3080 3146 ) resistor r=51
r516 (  3077 3140 ) resistor r=51
r517 (  3074 3134 ) resistor r=51
r518 (  3071 3128 ) resistor r=51
r519 (  2123 2124 ) resistor r=8.35152
r520 (  2121 2124 ) resistor r=8.35152
r521 (  2120 2123 ) resistor r=7.09851
r522 (  2120 2121 ) resistor r=6.66667
r523 (  2119 2124 ) resistor r=8.35152
r524 (  2118 2120 ) resistor r=0.43184
r525 (  2118 2119 ) resistor r=6.66667
r526 (  2117 2124 ) resistor r=11.2134
r527 (  2116 4906 ) resistor r=0.413939
r528 (  2116 2118 ) resistor r=0.287893
r529 (  2116 2117 ) resistor r=20
r530 (  2114 2115 ) resistor r=8.35152
r531 (  2113 4906 ) resistor r=0.56281
r532 (  2113 2114 ) resistor r=6.66667
r533 (  2112 2115 ) resistor r=8.35152
r534 (  2111 2113 ) resistor r=0.459436
r535 (  2111 2112 ) resistor r=6.66667
r536 (  2110 2115 ) resistor r=8.35152
r537 (  2109 2111 ) resistor r=0.459436
r538 (  2109 2110 ) resistor r=6.66667
r539 (  2108 2109 ) resistor r=20.3063
r540 (  2108 2115 ) resistor r=11.2134
r541 (  2105 4294 ) resistor r=6.76072
r542 (  2105 2106 ) resistor r=8.35152
r543 (  2103 2106 ) resistor r=8.35152
r544 (  2102 4297 ) resistor r=0.0940509
r545 (  2102 4294 ) resistor r=0.470255
r546 (  2102 2103 ) resistor r=6.66667
r547 (  2101 2106 ) resistor r=8.35152
r548 (  2100 4300 ) resistor r=0.0940509
r549 (  2100 4297 ) resistor r=0.470255
r550 (  2100 2101 ) resistor r=6.66667
r551 (  2099 4300 ) resistor r=20.2822
r552 (  2099 2106 ) resistor r=11.2134
r553 (  2096 4276 ) resistor r=6.76072
r554 (  2096 2097 ) resistor r=8.35152
r555 (  2094 2097 ) resistor r=8.35152
r556 (  2093 4279 ) resistor r=0.0940509
r557 (  2093 4276 ) resistor r=0.470255
r558 (  2093 2094 ) resistor r=6.66667
r559 (  2092 2097 ) resistor r=8.35152
r560 (  2091 4282 ) resistor r=0.0940509
r561 (  2091 4279 ) resistor r=0.470255
r562 (  2091 2092 ) resistor r=6.66667
r563 (  2090 4282 ) resistor r=20.2822
r564 (  2090 2097 ) resistor r=11.2134
r565 (  2087 2088 ) resistor r=8.35152
r566 (  2086 2087 ) resistor r=6.66667
r567 (  2085 2088 ) resistor r=8.35152
r568 (  2084 2086 ) resistor r=0.43184
r569 (  2084 2085 ) resistor r=6.66667
r570 (  2083 2088 ) resistor r=8.35152
r571 (  2082 2084 ) resistor r=0.43184
r572 (  2082 2083 ) resistor r=6.66667
r573 (  2081 2088 ) resistor r=11.2134
r574 (  2080 2082 ) resistor r=0.287893
r575 (  2080 2081 ) resistor r=20
r576 (  2078 2079 ) resistor r=8.35152
r577 (  2077 3726 ) resistor r=1.5069
r578 (  2077 2078 ) resistor r=6.66667
r579 (  2076 2079 ) resistor r=8.35152
r580 (  2075 2077 ) resistor r=0.43184
r581 (  2075 2076 ) resistor r=6.66667
r582 (  2074 2079 ) resistor r=8.35152
r583 (  2073 2075 ) resistor r=0.43184
r584 (  2073 2074 ) resistor r=6.66667
r585 (  2072 2079 ) resistor r=11.2134
r586 (  2071 2086 ) resistor r=0.939251
r587 (  2071 2073 ) resistor r=0.287893
r588 (  2071 2072 ) resistor r=20
r589 (  2069 2070 ) resistor r=8.35152
r590 (  2068 2069 ) resistor r=6.66667
r591 (  2067 2070 ) resistor r=8.35152
r592 (  2066 2068 ) resistor r=0.509971
r593 (  2066 2067 ) resistor r=6.66667
r594 (  2065 2070 ) resistor r=8.35152
r595 (  2064 2066 ) resistor r=0.516129
r596 (  2064 2065 ) resistor r=6.66667
r597 (  2063 2070 ) resistor r=11.2134
r598 (  2062 4161 ) resistor r=3.07333
r599 (  2062 2064 ) resistor r=0.344086
r600 (  2062 2063 ) resistor r=20
r601 (  2060 2061 ) resistor r=8.35152
r602 (  2059 2060 ) resistor r=6.66667
r603 (  2058 2061 ) resistor r=8.35152
r604 (  2057 2059 ) resistor r=0.273753
r605 (  2057 2058 ) resistor r=6.66667
r606 (  2056 2061 ) resistor r=8.35152
r607 (  2055 2057 ) resistor r=0.275876
r608 (  2055 2056 ) resistor r=6.66667
r609 (  2054 2061 ) resistor r=11.2134
r610 (  2053 4155 ) resistor r=1.75458
r611 (  2053 2055 ) resistor r=0.183917
r612 (  2053 2054 ) resistor r=20
r613 (  2051 2052 ) resistor r=8.35152
r614 (  2050 2051 ) resistor r=6.66667
r615 (  2049 2052 ) resistor r=8.35152
r616 (  2048 2050 ) resistor r=0.509971
r617 (  2048 2049 ) resistor r=6.66667
r618 (  2047 2052 ) resistor r=8.35152
r619 (  2046 2048 ) resistor r=0.509971
r620 (  2046 2047 ) resistor r=6.66667
r621 (  2045 2052 ) resistor r=11.2134
r622 (  2044 2068 ) resistor r=1.17718
r623 (  2044 2046 ) resistor r=0.33998
r624 (  2044 2045 ) resistor r=20
r625 (  2042 2043 ) resistor r=8.35152
r626 (  2041 2042 ) resistor r=6.66667
r627 (  2040 2043 ) resistor r=8.35152
r628 (  2039 2041 ) resistor r=0.273753
r629 (  2039 2040 ) resistor r=6.66667
r630 (  2038 2043 ) resistor r=8.35152
r631 (  2037 2039 ) resistor r=0.273753
r632 (  2037 2038 ) resistor r=6.66667
r633 (  2036 2043 ) resistor r=11.2134
r634 (  2035 2059 ) resistor r=0.631912
r635 (  2035 2037 ) resistor r=0.182502
r636 (  2035 2036 ) resistor r=20
r637 (  2033 2034 ) resistor r=8.35152
r638 (  2032 2033 ) resistor r=6.66667
r639 (  2031 2034 ) resistor r=8.35152
r640 (  2030 2032 ) resistor r=0.509971
r641 (  2030 2031 ) resistor r=6.66667
r642 (  2029 2034 ) resistor r=8.35152
r643 (  2028 2030 ) resistor r=0.509971
r644 (  2028 2029 ) resistor r=6.66667
r645 (  2027 2034 ) resistor r=11.2134
r646 (  2026 2050 ) resistor r=1.09644
r647 (  2026 2028 ) resistor r=0.33998
r648 (  2026 2027 ) resistor r=20
r649 (  2024 2025 ) resistor r=8.35152
r650 (  2023 2024 ) resistor r=6.66667
r651 (  2022 2025 ) resistor r=8.35152
r652 (  2021 2023 ) resistor r=0.273753
r653 (  2021 2022 ) resistor r=6.66667
r654 (  2020 2025 ) resistor r=8.35152
r655 (  2019 2021 ) resistor r=0.273753
r656 (  2019 2020 ) resistor r=6.66667
r657 (  2018 2025 ) resistor r=11.2134
r658 (  2017 2041 ) resistor r=0.588568
r659 (  2017 2019 ) resistor r=0.182502
r660 (  2017 2018 ) resistor r=20
r661 (  2015 2016 ) resistor r=8.35152
r662 (  2014 2015 ) resistor r=6.66667
r663 (  2013 2016 ) resistor r=8.35152
r664 (  2012 2014 ) resistor r=0.509971
r665 (  2012 2013 ) resistor r=6.66667
r666 (  2011 2016 ) resistor r=8.35152
r667 (  2010 2012 ) resistor r=0.509971
r668 (  2010 2011 ) resistor r=6.66667
r669 (  2009 2016 ) resistor r=11.2134
r670 (  2008 2032 ) resistor r=1.11769
r671 (  2008 2010 ) resistor r=0.33998
r672 (  2008 2009 ) resistor r=20
r673 (  2006 2007 ) resistor r=8.35152
r674 (  2005 4919 ) resistor r=0.378691
r675 (  2005 2006 ) resistor r=6.66667
r676 (  2004 2007 ) resistor r=8.35152
r677 (  2003 2005 ) resistor r=0.273753
r678 (  2003 2004 ) resistor r=6.66667
r679 (  2002 2007 ) resistor r=8.35152
r680 (  2001 2003 ) resistor r=0.273753
r681 (  2001 2002 ) resistor r=6.66667
r682 (  2000 2007 ) resistor r=11.2134
r683 (  1999 2023 ) resistor r=0.599974
r684 (  1999 2001 ) resistor r=0.182502
r685 (  1999 2000 ) resistor r=20
r686 (  1997 1998 ) resistor r=8.35152
r687 (  1996 1997 ) resistor r=6.66667
r688 (  1995 1998 ) resistor r=8.35152
r689 (  1994 1996 ) resistor r=0.509971
r690 (  1994 1995 ) resistor r=6.66667
r691 (  1993 1998 ) resistor r=8.35152
r692 (  1992 1994 ) resistor r=0.509971
r693 (  1992 1993 ) resistor r=6.66667
r694 (  1991 1998 ) resistor r=11.2134
r695 (  1990 2014 ) resistor r=1.13043
r696 (  1990 1992 ) resistor r=0.33998
r697 (  1990 1991 ) resistor r=20
r698 (  1988 1989 ) resistor r=8.35152
r699 (  1986 1989 ) resistor r=8.35152
r700 (  1985 1988 ) resistor r=6.94042
r701 (  1985 1986 ) resistor r=6.66667
r702 (  1984 1989 ) resistor r=8.35152
r703 (  1983 1985 ) resistor r=0.273753
r704 (  1983 1984 ) resistor r=6.66667
r705 (  1982 1989 ) resistor r=11.2134
r706 (  1981 4919 ) resistor r=0.228127
r707 (  1981 1983 ) resistor r=0.182502
r708 (  1981 1982 ) resistor r=20
r709 (  1979 1980 ) resistor r=8.35152
r710 (  1978 1979 ) resistor r=6.66667
r711 (  1977 1980 ) resistor r=8.35152
r712 (  1976 1978 ) resistor r=0.509971
r713 (  1976 1977 ) resistor r=6.66667
r714 (  1975 1980 ) resistor r=8.35152
r715 (  1974 1976 ) resistor r=0.516129
r716 (  1974 1975 ) resistor r=6.66667
r717 (  1973 1980 ) resistor r=11.2134
r718 (  1972 4146 ) resistor r=3.18394
r719 (  1972 1974 ) resistor r=0.344086
r720 (  1972 1973 ) resistor r=20
r721 (  1970 1971 ) resistor r=8.35152
r722 (  1969 1970 ) resistor r=6.66667
r723 (  1968 1971 ) resistor r=8.35152
r724 (  1967 1969 ) resistor r=0.538755
r725 (  1967 1968 ) resistor r=6.66667
r726 (  1966 1971 ) resistor r=8.35152
r727 (  1965 1967 ) resistor r=0.546935
r728 (  1965 1966 ) resistor r=6.66667
r729 (  1964 1971 ) resistor r=11.2134
r730 (  1963 4145 ) resistor r=3.38302
r731 (  1963 1965 ) resistor r=0.364623
r732 (  1963 1964 ) resistor r=20
r733 (  1961 1962 ) resistor r=8.35152
r734 (  1960 4299 ) resistor r=1.53069
r735 (  1960 1961 ) resistor r=6.66667
r736 (  1959 1962 ) resistor r=8.35152
r737 (  1958 1960 ) resistor r=0.509971
r738 (  1958 1959 ) resistor r=6.66667
r739 (  1957 1962 ) resistor r=8.35152
r740 (  1956 1958 ) resistor r=0.516129
r741 (  1956 1957 ) resistor r=6.66667
r742 (  1955 1962 ) resistor r=11.2134
r743 (  1954 4137 ) resistor r=3.17964
r744 (  1954 1956 ) resistor r=0.344086
r745 (  1954 1955 ) resistor r=20
r746 (  1952 1953 ) resistor r=8.35152
r747 (  1951 1952 ) resistor r=6.66667
r748 (  1950 1953 ) resistor r=8.35152
r749 (  1949 1951 ) resistor r=0.509971
r750 (  1949 1950 ) resistor r=6.66667
r751 (  1948 1953 ) resistor r=8.35152
r752 (  1947 1949 ) resistor r=0.516129
r753 (  1947 1948 ) resistor r=6.66667
r754 (  1946 1953 ) resistor r=11.2134
r755 (  1945 4136 ) resistor r=3.17964
r756 (  1945 1947 ) resistor r=0.344086
r757 (  1945 1946 ) resistor r=20
r758 (  1943 4285 ) resistor r=6.75517
r759 (  1943 1944 ) resistor r=8.35152
r760 (  1941 1944 ) resistor r=8.35152
r761 (  1940 4288 ) resistor r=0.0885068
r762 (  1940 4285 ) resistor r=0.442534
r763 (  1940 1941 ) resistor r=6.66667
r764 (  1939 1944 ) resistor r=8.35152
r765 (  1938 4291 ) resistor r=0.0885068
r766 (  1938 4288 ) resistor r=0.442534
r767 (  1938 1939 ) resistor r=6.66667
r768 (  1937 4291 ) resistor r=20.2655
r769 (  1937 1944 ) resistor r=11.2134
r770 (  1934 4266 ) resistor r=6.75166
r771 (  1934 1935 ) resistor r=8.35152
r772 (  1932 1935 ) resistor r=8.35152
r773 (  1931 4270 ) resistor r=0.0849951
r774 (  1931 4266 ) resistor r=0.424976
r775 (  1931 1932 ) resistor r=6.66667
r776 (  1930 1935 ) resistor r=8.35152