// File: spectre/curr_mirror_cicuit.sp.pex
// Created: Thu Mar  5 04:41:26 2026
// Program "Calibre xRC"
// Version "v2020.2_14.12"
// Nominal Temperature: 27C
// Circuit Temperature: 27C
// 
simulator lang=spectre
subckt PM_CURR_MIRROR_CICUIT\%VDD ( 143 309 558 565 567 576 585 594 603 612 \
 621 630 639 648 657 666 673 675 684 693 702 711 720 729 738 747 756 765 774 \
 783 792 801 810 819 826 828 837 846 855 864 873 926 978 995 1023 1040 1085 \
 1113 1130 1149 1154 1346 1479 1507 1540 1548 1734 1837 1857 2046 2063 2091 \
 2108 2338 2441 2480 2650 2695 2712 2942 3065 3084 3254 3271 3316 4364 4366 \
 4368 4370 4372 4374 4376 4378 4380 4382 4384 4386 4388 4390 4392 4394 4396 \
 4398 4400 4402 4404 4406 4408 4410 4412 4414 4416 4418 4420 4422 4424 4426 \
 4428 4430 4432 4434 4436 4438 4440 4442 4444 4445 4448 4451 4454 4457 4460 \
 4463 4466 4467 4469 4470 4472 4473 4475 4476 4478 4479 4481 4482 4484 4485 \
 4487 4490 4493 4496 4499 4502 4505 4508 4511 4514 4517 4518 4520 4521 4523 \
 4524 4526 4529 4532 4535 4538 4541 4544 4545 4547 4548 4550 4551 4553 4556 \
 4559 4562 4565 4568 4571 4574 4577 4580 4583 4584 4586 4587 4589 4590 4592 \
 4593 4595 4596 4598 4599 4601 4602 4604 4607 4610 4613 4616 4619 4622 4866 \
 4868 5209 5246 5284 5368 5380 5512 5524 5537 5550 5563 5591 5700 5888 6299 \
 6449 VSS )
c179 ( 6369 VSS ) capacitor c=1.18968f
c180 ( 5815 VSS ) capacitor c=1.53048f
c181 ( 5670 VSS ) capacitor c=0.609971f
c182 ( 5630 VSS ) capacitor c=0.138563f
c183 ( 5591 VSS ) capacitor c=1.10366f
c184 ( 5585 VSS ) capacitor c=0.533574f
c185 ( 5581 VSS ) capacitor c=0.11178f
c186 ( 5573 VSS ) capacitor c=0.468575f
c187 ( 5569 VSS ) capacitor c=0.161313f
c188 ( 5568 VSS ) capacitor c=0.174234f
c189 ( 5563 VSS ) capacitor c=1.02091f
c190 ( 5555 VSS ) capacitor c=0.300224f
c191 ( 5550 VSS ) capacitor c=1.02915f
c192 ( 5542 VSS ) capacitor c=0.355542f
c193 ( 5537 VSS ) capacitor c=1.02048f
c194 ( 5529 VSS ) capacitor c=0.353727f
c195 ( 5524 VSS ) capacitor c=1.06947f
c196 ( 5516 VSS ) capacitor c=0.394411f
c197 ( 5512 VSS ) capacitor c=1.25184f
c198 ( 5505 VSS ) capacitor c=0.467754f
c199 ( 5487 VSS ) capacitor c=2.13083f
c200 ( 5385 VSS ) capacitor c=3.8036f
c201 ( 5380 VSS ) capacitor c=0.470297f
c202 ( 5328 VSS ) capacitor c=0.161724f
c203 ( 5325 VSS ) capacitor c=0.136148f
c204 ( 5287 VSS ) capacitor c=0.136706f
c205 ( 5284 VSS ) capacitor c=0.249102f
c206 ( 5281 VSS ) capacitor c=0.20551f
c207 ( 5274 VSS ) capacitor c=0.181207f
c208 ( 5258 VSS ) capacitor c=0.143256f
c209 ( 5236 VSS ) capacitor c=0.29333f
c210 ( 5234 VSS ) capacitor c=0.1778f
c211 ( 5230 VSS ) capacitor c=0.286305f
c212 ( 5225 VSS ) capacitor c=0.151127f
c213 ( 5218 VSS ) capacitor c=0.199011f
c214 ( 5214 VSS ) capacitor c=0.213759f
c215 ( 5193 VSS ) capacitor c=0.200642f
c216 ( 5171 VSS ) capacitor c=0.509394f
c217 ( 4936 VSS ) capacitor c=0.20365f
c218 ( 4868 VSS ) capacitor c=0.460197f
c219 ( 4696 VSS ) capacitor c=0.260513f
c220 ( 3085 VSS ) capacitor c=1.3201f
c221 ( 3084 VSS ) capacitor c=0.134139f
c222 ( 2481 VSS ) capacitor c=1.21603f
c223 ( 2480 VSS ) capacitor c=0.151334f
c224 ( 1877 VSS ) capacitor c=1.19346f
c225 ( 1876 VSS ) capacitor c=0.154388f
c226 ( 1540 VSS ) capacitor c=1.03236f
c227 ( 873 VSS ) capacitor c=1.85484f
c228 ( 864 VSS ) capacitor c=0.28838f
c229 ( 855 VSS ) capacitor c=0.261862f
c230 ( 846 VSS ) capacitor c=0.241157f
c231 ( 837 VSS ) capacitor c=0.256592f
c232 ( 828 VSS ) capacitor c=0.256592f
c233 ( 826 VSS ) capacitor c=0.173734f
c234 ( 819 VSS ) capacitor c=0.274232f
c235 ( 810 VSS ) capacitor c=0.274232f
c236 ( 801 VSS ) capacitor c=0.274232f
c237 ( 792 VSS ) capacitor c=0.274232f
c238 ( 783 VSS ) capacitor c=0.274232f
c239 ( 774 VSS ) capacitor c=0.274232f
c240 ( 765 VSS ) capacitor c=0.274232f
c241 ( 756 VSS ) capacitor c=0.274232f
c242 ( 754 VSS ) capacitor c=0.478601f
c243 ( 747 VSS ) capacitor c=0.276482f
c244 ( 745 VSS ) capacitor c=0.574203f
c245 ( 738 VSS ) capacitor c=0.276482f
c246 ( 729 VSS ) capacitor c=0.298398f
c247 ( 727 VSS ) capacitor c=0.235625f
c248 ( 720 VSS ) capacitor c=0.272605f
c249 ( 712 VSS ) capacitor c=0.140285f
c250 ( 711 VSS ) capacitor c=0.261044f
c251 ( 703 VSS ) capacitor c=0.140285f
c252 ( 702 VSS ) capacitor c=0.272605f
c253 ( 694 VSS ) capacitor c=0.113639f
c254 ( 693 VSS ) capacitor c=0.241157f
c255 ( 684 VSS ) capacitor c=0.238431f
c256 ( 675 VSS ) capacitor c=0.264547f
c257 ( 666 VSS ) capacitor c=0.275927f
c258 ( 664 VSS ) capacitor c=0.197918f
c259 ( 657 VSS ) capacitor c=0.275226f
c260 ( 655 VSS ) capacitor c=0.232355f
c261 ( 648 VSS ) capacitor c=0.273628f
c262 ( 639 VSS ) capacitor c=0.280144f
c263 ( 630 VSS ) capacitor c=0.274232f
c264 ( 621 VSS ) capacitor c=0.274232f
c265 ( 612 VSS ) capacitor c=0.274232f
c266 ( 603 VSS ) capacitor c=0.274232f
c267 ( 594 VSS ) capacitor c=0.274232f
c268 ( 585 VSS ) capacitor c=0.274232f
c269 ( 576 VSS ) capacitor c=0.274232f
c270 ( 567 VSS ) capacitor c=0.276482f
c271 ( 565 VSS ) capacitor c=0.515882f
c272 ( 558 VSS ) capacitor c=0.276482f
c273 ( 556 VSS ) capacitor c=0.576272f
c274 ( 476 VSS ) capacitor c=0.213917f
c275 ( 475 VSS ) capacitor c=0.148226f
c276 ( 310 VSS ) capacitor c=0.619838f
c277 ( 309 VSS ) capacitor c=0.14792f
c278 ( 221 VSS ) capacitor c=0.843194f
c279 ( 219 VSS ) capacitor c=0.301388f
c280 ( 144 VSS ) capacitor c=0.216863f
c281 ( 143 VSS ) capacitor c=0.151222f
c282 ( 2 VSS ) capacitor c=0.675832f
r283 (  6983 6986 ) resistor r=0.0140252
r284 (  6978 6983 ) resistor r=0.0140252
r285 (  6975 6978 ) resistor r=0.0561008
r286 (  6971 6975 ) resistor r=0.0561008
r287 (  6933 6965 ) resistor r=0.325052
r288 (  6913 6933 ) resistor r=0.227187
r289 (  6905 6957 ) resistor r=0.552238
r290 (  6900 6952 ) resistor r=0.552238
r291 (  6895 6942 ) resistor r=0.552238
r292 (  6890 6937 ) resistor r=0.552238
r293 (  6885 6947 ) resistor r=0.570588
r294 (  6885 6886 ) resistor r=0.75
r295 (  6875 6913 ) resistor r=0.551364
r296 (  6867 6905 ) resistor r=0.551364
r297 (  6862 6900 ) resistor r=0.551364
r298 (  6857 6895 ) resistor r=0.551364
r299 (  6852 6890 ) resistor r=0.551364
r300 (  6847 6885 ) resistor r=0.551364
r301 (  6847 6848 ) resistor r=0.75
r302 (  6842 6875 ) resistor r=0.552238
r303 (  6834 6867 ) resistor r=0.55312
r304 (  6829 6862 ) resistor r=0.552238
r305 (  6824 6847 ) resistor r=0.533888
r306 (  6819 6857 ) resistor r=0.552238
r307 (  6814 6852 ) resistor r=0.552238
r308 (  6809 6842 ) resistor r=0.550316
r309 (  6801 6834 ) resistor r=0.551569
r310 (  6796 6829 ) resistor r=0.550316
r311 (  6791 6824 ) resistor r=0.550316
r312 (  6786 6819 ) resistor r=0.550316
r313 (  6781 6814 ) resistor r=0.550316
r314 (  6776 6809 ) resistor r=0.551364
r315 (  6768 6801 ) resistor r=0.551904
r316 (  6763 6796 ) resistor r=0.551364
r317 (  6758 6791 ) resistor r=0.551364
r318 (  6753 6786 ) resistor r=0.551364
r319 (  6748 6781 ) resistor r=0.551364
r320 (  6743 6776 ) resistor r=0.567966
r321 (  6743 6744 ) resistor r=0.75
r322 (  6733 6734 ) resistor r=1.5
r323 (  6727 6728 ) resistor r=1.5
r324 (  6721 6722 ) resistor r=1.5
r325 (  6715 6716 ) resistor r=1.5
r326 (  6709 6710 ) resistor r=1.5
r327 (  6703 6743 ) resistor r=0.055049
r328 (  6672 6703 ) resistor r=1.07418
r329 (  6663 6733 ) resistor r=0.361751
r330 (  6663 6664 ) resistor r=0.75
r331 (  6658 6727 ) resistor r=0.361751
r332 (  6658 6659 ) resistor r=0.75
r333 (  6653 6721 ) resistor r=0.361751
r334 (  6653 6654 ) resistor r=0.75
r335 (  6648 6715 ) resistor r=0.361751
r336 (  6648 6649 ) resistor r=0.75
r337 (  6643 6709 ) resistor r=0.361751
r338 (  6643 6644 ) resistor r=0.75
r339 (  6637 6640 ) resistor r=0.0116877
r340 (  6632 6637 ) resistor r=0.0116877
r341 (  6629 6632 ) resistor r=0.0584383
r342 (  6625 6629 ) resistor r=0.0584383
r343 (  6612 6986 ) resistor r=0.166667
r344 (  6609 6612 ) resistor r=0.0156278
r345 (  6609 6983 ) resistor r=0.166667
r346 (  6604 6609 ) resistor r=0.0156278
r347 (  6604 6978 ) resistor r=0.166667
r348 (  6604 6978 ) resistor r=0.0542169
r349 (  6599 6975 ) resistor r=0.0542169
r350 (  6595 6971 ) resistor r=0.0542169
r351 (  6505 6933 ) resistor r=1.16711
r352 (  6492 6505 ) resistor r=0.706996
r353 (  6492 6493 ) resistor r=1.5
r354 (  6489 6492 ) resistor r=1.52639
r355 (  6489 6490 ) resistor r=1.5
r356 (  6475 6489 ) resistor r=0.688868
r357 (  6475 6476 ) resistor r=1.5
r358 (  6464 6475 ) resistor r=1.46403
r359 (  6451 6464 ) resistor r=0.750504
r360 (  6451 6452 ) resistor r=1.5
r361 (  6448 6451 ) resistor r=1.50826
r362 (  6448 6449 ) resistor r=1.5
r363 (  6434 6448 ) resistor r=0.706996
r364 (  6434 6435 ) resistor r=1.5
r365 (  6423 6434 ) resistor r=1.4865
r366 (  6410 6423 ) resistor r=0.72875
r367 (  6410 6411 ) resistor r=1.5
r368 (  6407 6410 ) resistor r=1.39949
r369 (  6407 6408 ) resistor r=1.5
r370 (  6393 6407 ) resistor r=0.815765
r371 (  6393 6394 ) resistor r=1.5
r372 (  6382 6393 ) resistor r=1.52639
r373 (  6369 6382 ) resistor r=0.688868
r374 (  6369 6370 ) resistor r=1.5
r375 (  6299 6886 ) resistor r=0.75
r376 (  6223 6848 ) resistor r=0.75
r377 (  5944 6703 ) resistor r=1.1803
r378 (  5938 5944 ) resistor r=0.703371
r379 (  5938 6699 ) resistor r=0.932802
r380 (  5928 6699 ) resistor r=0.830267
r381 (  5928 5929 ) resistor r=1.5
r382 (  5914 5928 ) resistor r=0.474956
r383 (  5914 6695 ) resistor r=0.932802
r384 (  5914 5915 ) resistor r=1.5
r385 (  5903 6695 ) resistor r=0.637384
r386 (  5897 5903 ) resistor r=0.667114
r387 (  5897 6691 ) resistor r=0.933527
r388 (  5887 6691 ) resistor r=0.713522
r389 (  5887 5888 ) resistor r=1.5
r390 (  5873 5887 ) resistor r=0.590976
r391 (  5873 6687 ) resistor r=0.933527
r392 (  5873 5874 ) resistor r=1.5
r393 (  5862 6687 ) resistor r=0.666389
r394 (  5856 5862 ) resistor r=0.638109
r395 (  5856 6683 ) resistor r=0.933527
r396 (  5846 6683 ) resistor r=0.64101
r397 (  5846 5847 ) resistor r=1.5
r398 (  5832 5846 ) resistor r=0.663489
r399 (  5832 6679 ) resistor r=0.933527
r400 (  5832 5833 ) resistor r=1.5
r401 (  5821 6679 ) resistor r=0.691769
r402 (  5815 5821 ) resistor r=0.61273
r403 (  5804 6744 ) resistor r=0.75
r404 (  5774 6734 ) resistor r=1.5
r405 (  5759 6728 ) resistor r=1.5
r406 (  5744 6722 ) resistor r=1.5
r407 (  5729 6716 ) resistor r=1.5
r408 (  5714 6710 ) resistor r=1.5
r409 (  5695 6640 ) resistor r=0.195652
r410 (  5687 6632 ) resistor r=0.195652
r411 (  5687 6632 ) resistor r=0.0478723
r412 (  5683 6629 ) resistor r=0.0478723
r413 (  5679 6625 ) resistor r=0.0478723
r414 (  5668 5670 ) resistor r=0.0586042
r415 (  5668 6612 ) resistor r=0.006186
r416 (  5666 6604 ) resistor r=0.0146511
r417 (  5664 5666 ) resistor r=0.0130232
r418 (  5664 6599 ) resistor r=0.034837
r419 (  5662 6599 ) resistor r=0.0172557
r420 (  5662 6595 ) resistor r=0.0452555
r421 (  5658 6595 ) resistor r=0.00813948
r422 (  5656 5658 ) resistor r=0.0507903
r423 (  5652 5656 ) resistor r=0.0540461
r424 (  5650 5652 ) resistor r=0.0631623
r425 (  5630 5631 ) resistor r=1.4717
r426 (  5630 5631 ) resistor r=1.4717
r427 (  5628 5631 ) resistor r=7.2584
r428 (  5627 5630 ) resistor r=0.0559996
r429 (  5627 5628 ) resistor r=1.4717
r430 (  5623 5628 ) resistor r=6.33
r431 (  5622 5627 ) resistor r=0.0488369
r432 (  5622 5700 ) resistor r=0.0150418
r433 (  5622 5623 ) resistor r=1.4717
r434 (  5622 5623 ) resistor r=1.4717
r435 (  5620 5623 ) resistor r=7.5116
r436 (  5619 5700 ) resistor r=0.0429113
r437 (  5619 5620 ) resistor r=1.4717
r438 (  5617 5620 ) resistor r=6.9208
r439 (  5616 5619 ) resistor r=0.053395
r440 (  5616 5617 ) resistor r=1.4717
r441 (  5614 5617 ) resistor r=1.0972
r442 (  5613 5616 ) resistor r=0.00846506
r443 (  5613 5695 ) resistor r=0.0442788
r444 (  5613 5614 ) resistor r=1.4717
r445 (  5611 5614 ) resistor r=7.5538
r446 (  5610 5695 ) resistor r=0.0139999
r447 (  5610 6637 ) resistor r=0.195652
r448 (  5610 5687 ) resistor r=0.0120464
r449 (  5610 5611 ) resistor r=1.4717
r450 (  5606 5611 ) resistor r=6.0346
r451 (  5605 5687 ) resistor r=0.0345114
r452 (  5605 5683 ) resistor r=0.0306044
r453 (  5605 5606 ) resistor r=1.4717
r454 (  5605 5606 ) resistor r=1.4717
r455 (  5603 5606 ) resistor r=6.0768
r456 (  5602 5683 ) resistor r=0.016279
r457 (  5602 5679 ) resistor r=0.0488369
r458 (  5602 5603 ) resistor r=1.4717
r459 (  5599 5679 ) resistor r=1.48537
r460 (  5599 5603 ) resistor r=8.1024
r461 (  5589 5591 ) resistor r=0.104855
r462 (  5586 5589 ) resistor r=0.104855
r463 (  5586 6965 ) resistor r=0.626511
r464 (  5585 5591 ) resistor r=0.271522
r465 (  5585 5591 ) resistor r=0.166667
r466 (  5585 5589 ) resistor r=0.166667
r467 (  5585 5586 ) resistor r=0.166667
r468 (  5581 5585 ) resistor r=0.132927
r469 (  5577 5579 ) resistor r=0.0613321
r470 (  5575 5577 ) resistor r=0.0919982
r471 (  5573 5575 ) resistor r=0.0919982
r472 (  5572 5581 ) resistor r=0.0111755
r473 (  5572 5579 ) resistor r=0.25
r474 (  5572 5577 ) resistor r=0.166667
r475 (  5572 5575 ) resistor r=0.166667
r476 (  5572 5573 ) resistor r=0.166667
r477 (  5569 5579 ) resistor r=0.0613321
r478 (  5569 5581 ) resistor r=0.75
r479 (  5568 5572 ) resistor r=0.0111755
r480 (  5568 5569 ) resistor r=0.375
r481 (  5561 5563 ) resistor r=0.104855
r482 (  5559 5561 ) resistor r=0.104855
r483 (  5556 5559 ) resistor r=0.104855
r484 (  5556 6957 ) resistor r=0.609035
r485 (  5555 5568 ) resistor r=0.132621
r486 (  5555 5563 ) resistor r=0.569904
r487 (  5555 5563 ) resistor r=0.166667
r488 (  5555 5561 ) resistor r=0.166667
r489 (  5555 5559 ) resistor r=0.166667
r490 (  5555 5556 ) resistor r=0.166667
r491 (  5548 5550 ) resistor r=0.104855
r492 (  5546 5548 ) resistor r=0.104855
r493 (  5543 5546 ) resistor r=0.104855
r494 (  5543 6952 ) resistor r=0.609035
r495 (  5542 5555 ) resistor r=0.144553
r496 (  5542 5550 ) resistor r=0.569904
r497 (  5542 5550 ) resistor r=0.166667
r498 (  5542 5548 ) resistor r=0.166667
r499 (  5542 5546 ) resistor r=0.166667
r500 (  5542 5543 ) resistor r=0.166667
r501 (  5535 5537 ) resistor r=0.104855
r502 (  5533 5535 ) resistor r=0.104855
r503 (  5530 5533 ) resistor r=0.104855
r504 (  5530 6947 ) resistor r=0.609035
r505 (  5529 5542 ) resistor r=0.144079
r506 (  5529 5537 ) resistor r=0.569904
r507 (  5529 5537 ) resistor r=0.166667
r508 (  5529 5535 ) resistor r=0.166667
r509 (  5529 5533 ) resistor r=0.166667
r510 (  5529 5530 ) resistor r=0.166667
r511 (  5522 5524 ) resistor r=0.104855
r512 (  5520 5522 ) resistor r=0.104855
r513 (  5517 5520 ) resistor r=0.104855
r514 (  5517 6942 ) resistor r=0.609035
r515 (  5516 5529 ) resistor r=0.143843
r516 (  5516 5524 ) resistor r=0.569904
r517 (  5516 5524 ) resistor r=0.166667
r518 (  5516 5522 ) resistor r=0.166667
r519 (  5516 5520 ) resistor r=0.166667
r520 (  5516 5517 ) resistor r=0.166667
r521 (  5510 5512 ) resistor r=0.104855
r522 (  5508 5510 ) resistor r=0.104855
r523 (  5506 5508 ) resistor r=0.104855
r524 (  5506 6937 ) resistor r=0.609035
r525 (  5505 5516 ) resistor r=0.150914
r526 (  5505 5512 ) resistor r=0.569904
r527 (  5505 5512 ) resistor r=0.166667
r528 (  5505 5510 ) resistor r=0.166667
r529 (  5505 5508 ) resistor r=0.166667
r530 (  5505 5506 ) resistor r=0.166667
r531 (  5502 6986 ) resistor r=0.166667
r532 (  5499 5502 ) resistor r=0.0140252
r533 (  5499 6983 ) resistor r=0.166667
r534 (  5497 6975 ) resistor r=0.0542169
r535 (  5496 5502 ) resistor r=0.213993
r536 (  5496 5499 ) resistor r=0.166667
r537 (  5496 5497 ) resistor r=0.0542169
r538 (  5493 5496 ) resistor r=0.00946529
r539 (  5491 5499 ) resistor r=0.0140252
r540 (  5491 5497 ) resistor r=0.0561008
r541 (  5491 6978 ) resistor r=0.166667
r542 (  5491 6978 ) resistor r=0.0542169
r543 (  5491 5493 ) resistor r=0.166667
r544 (  5490 5493 ) resistor r=0.00946529
r545 (  5490 5491 ) resistor r=0.0542169
r546 (  5488 5497 ) resistor r=0.0561008
r547 (  5488 6971 ) resistor r=0.0542169
r548 (  5487 5585 ) resistor r=0.996703
r549 (  5487 5490 ) resistor r=0.0189306
r550 (  5487 5488 ) resistor r=0.0542169
r551 (  5466 6640 ) resistor r=0.195652
r552 (  5463 5466 ) resistor r=0.0116877
r553 (  5463 6637 ) resistor r=0.195652
r554 (  5459 6629 ) resistor r=0.0478723
r555 (  5458 5466 ) resistor r=0.241086
r556 (  5458 5463 ) resistor r=0.195652
r557 (  5458 5459 ) resistor r=0.0478723
r558 (  5456 5463 ) resistor r=0.0116877
r559 (  5456 5459 ) resistor r=0.0584383
r560 (  5456 6632 ) resistor r=0.195652
r561 (  5456 6632 ) resistor r=0.0478723
r562 (  5456 5458 ) resistor r=0.195652
r563 (  5455 5458 ) resistor r=0.0113584
r564 (  5455 5456 ) resistor r=0.0478723
r565 (  5453 5459 ) resistor r=0.0584383
r566 (  5453 6625 ) resistor r=0.0478723
r567 (  5452 5455 ) resistor r=0.0340751
r568 (  5452 5453 ) resistor r=0.0478723
r569 (  5448 5450 ) resistor r=0.0613321
r570 (  5446 5448 ) resistor r=0.0919982
r571 (  5444 5446 ) resistor r=0.0919982
r572 (  5441 5452 ) resistor r=1.13867
r573 (  5441 5450 ) resistor r=0.5
r574 (  5441 5448 ) resistor r=0.166667
r575 (  5441 5446 ) resistor r=0.166667
r576 (  5441 5444 ) resistor r=0.166667
r577 (  5441 5444 ) resistor r=0.262446
r578 (  5439 6663 ) resistor r=0.651851
r579 (  5437 5439 ) resistor r=0.0699036
r580 (  5435 5437 ) resistor r=0.104855
r581 (  5433 5435 ) resistor r=0.104855
r582 (  5430 5441 ) resistor r=0.144298
r583 (  5430 5439 ) resistor r=0.5
r584 (  5430 5437 ) resistor r=0.166667
r585 (  5430 5435 ) resistor r=0.166667
r586 (  5430 5433 ) resistor r=0.166667
r587 (  5430 5433 ) resistor r=0.271522
r588 (  5428 6658 ) resistor r=0.651851
r589 (  5426 5428 ) resistor r=0.0699036
r590 (  5424 5426 ) resistor r=0.104855
r591 (  5422 5424 ) resistor r=0.104855
r592 (  5419 5430 ) resistor r=0.145056
r593 (  5419 5428 ) resistor r=0.5
r594 (  5419 5426 ) resistor r=0.166667
r595 (  5419 5424 ) resistor r=0.166667
r596 (  5419 5422 ) resistor r=0.166667
r597 (  5419 5422 ) resistor r=0.271522
r598 (  5417 6653 ) resistor r=0.651851
r599 (  5415 5417 ) resistor r=0.0699036
r600 (  5413 5415 ) resistor r=0.104855
r601 (  5411 5413 ) resistor r=0.104855
r602 (  5408 5419 ) resistor r=0.144582
r603 (  5408 5417 ) resistor r=0.5
r604 (  5408 5415 ) resistor r=0.166667
r605 (  5408 5413 ) resistor r=0.166667
r606 (  5408 5411 ) resistor r=0.166667
r607 (  5408 5411 ) resistor r=0.271522
r608 (  5406 6648 ) resistor r=0.651851
r609 (  5404 5406 ) resistor r=0.0699036
r610 (  5402 5404 ) resistor r=0.104855
r611 (  5400 5402 ) resistor r=0.104855
r612 (  5397 5408 ) resistor r=0.144346
r613 (  5397 5406 ) resistor r=0.5
r614 (  5397 5404 ) resistor r=0.166667
r615 (  5397 5402 ) resistor r=0.166667
r616 (  5397 5400 ) resistor r=0.166667
r617 (  5397 5400 ) resistor r=0.271522
r618 (  5395 6643 ) resistor r=0.651851
r619 (  5393 5395 ) resistor r=0.0699036
r620 (  5391 5393 ) resistor r=0.104855
r621 (  5389 5391 ) resistor r=0.104855
r622 (  5385 5397 ) resistor r=0.144582
r623 (  5385 5395 ) resistor r=0.5
r624 (  5385 5393 ) resistor r=0.166667
r625 (  5385 5391 ) resistor r=0.166667
r626 (  5385 5389 ) resistor r=0.166667
r627 (  5385 5389 ) resistor r=0.271522
r628 (  5380 5573 ) resistor r=0.60518
r629 (  5377 5380 ) resistor r=0.552238
r630 (  5374 5377 ) resistor r=0.551364
r631 (  5371 5374 ) resistor r=0.552238
r632 (  5368 5371 ) resistor r=0.550316
r633 (  5365 5368 ) resistor r=0.551364
r634 (  5362 5789 ) resistor r=1.5
r635 (  5361 5362 ) resistor r=1.5
r636 (  5358 5450 ) resistor r=0.652303
r637 (  5358 5361 ) resistor r=0.361751
r638 (  5358 5359 ) resistor r=0.75
r639 (  5328 5329 ) resistor r=1.5
r640 (  5325 5328 ) resistor r=1.81393
r641 (  5317 5318 ) resistor r=0.5
r642 (  5314 5317 ) resistor r=0.379372
r643 (  5314 5315 ) resistor r=0.5
r644 (  5311 5314 ) resistor r=0.379372
r645 (  5311 5312 ) resistor r=0.5
r646 (  5308 5311 ) resistor r=1.1476
r647 (  5308 5309 ) resistor r=0.5
r648 (  5305 5308 ) resistor r=0.379372
r649 (  5305 5306 ) resistor r=0.5
r650 (  5302 5305 ) resistor r=0.379372
r651 (  5302 5303 ) resistor r=0.5
r652 (  5299 5302 ) resistor r=1.08121
r653 (  5299 5300 ) resistor r=0.5
r654 (  5296 5299 ) resistor r=0.379372
r655 (  5296 5297 ) resistor r=0.5
r656 (  5293 5296 ) resistor r=0.379372
r657 (  5293 5294 ) resistor r=0.5
r658 (  5290 5293 ) resistor r=1.07173
r659 (  5290 5291 ) resistor r=0.5
r660 (  5287 5290 ) resistor r=0.379372
r661 (  5287 5288 ) resistor r=0.5
r662 (  5284 5287 ) resistor r=0.879372
r663 (  5281 5650 ) resistor r=0.0288424
r664 (  5274 5325 ) resistor r=0.242892
r665 (  5258 5271 ) resistor r=0.813462
r666 (  5258 6408 ) resistor r=0.205834
r667 (  5249 6408 ) resistor r=0.892505
r668 (  5247 5254 ) resistor r=1.09933
r669 (  5244 5249 ) resistor r=0.813538
r670 (  5241 5243 ) resistor r=0.0442788
r671 (  5238 5241 ) resistor r=0.0078139
r672 (  5236 5238 ) resistor r=0.0279998
r673 (  5232 5234 ) resistor r=0.0358137
r674 (  5230 5232 ) resistor r=0.0576275
r675 (  5223 5225 ) resistor r=0.0266324
r676 (  5223 5224 ) resistor r=1.4717
r677 (  5221 5224 ) resistor r=0.2532
r678 (  5220 5223 ) resistor r=0.00195347
r679 (  5220 5221 ) resistor r=1.4717
r680 (  5218 5220 ) resistor r=0.0293672
r681 (  5217 5221 ) resistor r=6.4988
r682 (  5216 5218 ) resistor r=0.0207719
r683 (  5216 5217 ) resistor r=1.4717
r684 (  5214 5216 ) resistor r=0.0147162
r685 (  5200 5202 ) resistor r=0.00514415
r686 (  5200 5201 ) resistor r=1.4717
r687 (  5196 5201 ) resistor r=7.5116
r688 (  5195 5200 ) resistor r=0.0579531
r689 (  5195 5196 ) resistor r=1.4717
r690 (  5195 5196 ) resistor r=1.4717
r691 (  5193 5195 ) resistor r=0.0134139
r692 (  5171 5630 ) resistor r=0.0108705
r693 (  5043 5281 ) resistor r=0.0301447
r694 (  5040 5043 ) resistor r=0.0475345
r695 (  5035 5040 ) resistor r=0.0573019
r696 (  5032 5243 ) resistor r=0.0078139
r697 (  5032 5035 ) resistor r=0.0599065
r698 (  4936 5236 ) resistor r=0.0293021
r699 (  4931 4936 ) resistor r=0.0475345
r700 (  4928 4931 ) resistor r=0.0566508
r701 (  4925 4928 ) resistor r=0.0481857
r702 (  4922 5234 ) resistor r=0.016279
r703 (  4922 4925 ) resistor r=0.00390695
r704 (  4900 5230 ) resistor r=0.006186
r705 (  4897 4900 ) resistor r=0.053395
r706 (  4892 4897 ) resistor r=0.0513764
r707 (  4892 4893 ) resistor r=1.4717
r708 (  4892 4893 ) resistor r=1.4717
r709 (  4890 4893 ) resistor r=6.8364
r710 (  4890 5224 ) resistor r=8.44
r711 (  4889 5225 ) resistor r=0.0384834
r712 (  4889 4892 ) resistor r=0.0527438
r713 (  4889 4890 ) resistor r=1.4717
r714 (  4868 5218 ) resistor r=8.78197
r715 (  4842 4866 ) resistor r=1.44022
r716 (  4839 5217 ) resistor r=7.0896
r717 (  4838 5214 ) resistor r=0.0399811
r718 (  4838 4839 ) resistor r=1.4717
r719 (  4838 4839 ) resistor r=1.4717
r720 (  4836 4839 ) resistor r=6.4144
r721 (  4835 4838 ) resistor r=0.049488
r722 (  4835 4836 ) resistor r=1.4717
r723 (  4833 4836 ) resistor r=7.174
r724 (  4832 4835 ) resistor r=0.0553484
r725 (  4832 4833 ) resistor r=1.4717
r726 (  4830 4833 ) resistor r=1.266
r727 (  4830 5201 ) resistor r=6.752
r728 (  4829 5202 ) resistor r=0.0469485
r729 (  4829 4832 ) resistor r=0.00976737
r730 (  4829 4830 ) resistor r=1.4717
r731 (  4697 5196 ) resistor r=5.9924
r732 (  4696 5193 ) resistor r=0.0328184
r733 (  4696 4697 ) resistor r=1.4717
r734 (  4692 4697 ) resistor r=7.596
r735 (  4691 4696 ) resistor r=0.0586042
r736 (  4691 4692 ) resistor r=1.4717
r737 (  4691 4692 ) resistor r=1.4717
r738 (  4689 4692 ) resistor r=7.596
r739 (  4689 5631 ) resistor r=7.9336
r740 (  4688 5171 ) resistor r=0.0526748
r741 (  4688 4691 ) resistor r=0.0586042
r742 (  4688 4689 ) resistor r=1.4717
r743 (  4658 6464 ) resistor r=1.79256
r744 (  4658 5276 ) resistor r=0.894449
r745 (  4444 6299 ) resistor r=8.66667
r746 (  4444 6223 ) resistor r=8.66667
r747 (  4444 5804 ) resistor r=8.66667
r748 (  4443 5670 ) resistor r=1.45942
r749 (  4443 5670 ) resistor r=1.4717
r750 (  4443 5668 ) resistor r=1.4717
r751 (  4443 5666 ) resistor r=1.4717
r752 (  4443 5664 ) resistor r=1.4717
r753 (  4443 5662 ) resistor r=1.4717
r754 (  4443 5658 ) resistor r=1.4717
r755 (  4443 5658 ) resistor r=1.4717
r756 (  4443 5656 ) resistor r=1.4717
r757 (  4443 5652 ) resistor r=1.4717
r758 (  4443 5652 ) resistor r=1.4717
r759 (  4443 5650 ) resistor r=1.4717
r760 (  4443 4893 ) resistor r=1.93276
r761 (  4443 5241 ) resistor r=1.4717
r762 (  4443 5238 ) resistor r=1.4717
r763 (  4443 5232 ) resistor r=1.4717
r764 (  4443 5043 ) resistor r=1.4717
r765 (  4443 5043 ) resistor r=1.4717
r766 (  4443 5040 ) resistor r=1.4717
r767 (  4443 5035 ) resistor r=1.4717
r768 (  4443 5035 ) resistor r=1.4717
r769 (  4443 5032 ) resistor r=1.4717
r770 (  4443 4936 ) resistor r=1.4717
r771 (  4443 4931 ) resistor r=1.4717
r772 (  4443 4931 ) resistor r=1.4717
r773 (  4443 4928 ) resistor r=1.4717
r774 (  4443 4925 ) resistor r=1.4717
r775 (  4443 4922 ) resistor r=1.4717
r776 (  4443 4900 ) resistor r=1.4717
r777 (  4443 4900 ) resistor r=1.4717
r778 (  4443 4897 ) resistor r=1.4717
r779 (  4362 4442 ) resistor r=46.75
r780 (  4355 4428 ) resistor r=46.75
r781 (  3321 4444 ) resistor r=30.4833
r782 (  3321 3323 ) resistor r=62.5553
r783 (  3320 3323 ) resistor r=9.14902
r784 (  3320 3321 ) resistor r=8.66667
r785 (  3318 3320 ) resistor r=0.482355
r786 (  3318 4444 ) resistor r=8.66667
r787 (  3316 5371 ) resistor r=1.06125
r788 (  3316 3318 ) resistor r=0.474699
r789 (  3316 4444 ) resistor r=8.66667
r790 (  3304 4444 ) resistor r=30.4833
r791 (  3304 3306 ) resistor r=62.5553
r792 (  3303 3306 ) resistor r=9.14902
r793 (  3303 3304 ) resistor r=8.66667
r794 (  3301 3303 ) resistor r=0.482355
r795 (  3301 4444 ) resistor r=8.66667
r796 (  3299 5368 ) resistor r=1.06585
r797 (  3299 3301 ) resistor r=0.474699
r798 (  3299 4444 ) resistor r=8.66667
r799 (  3276 4444 ) resistor r=30.4833
r800 (  3276 3278 ) resistor r=62.5553
r801 (  3275 3278 ) resistor r=9.14902
r802 (  3275 3276 ) resistor r=8.66667
r803 (  3273 3275 ) resistor r=0.482355
r804 (  3273 4444 ) resistor r=8.66667
r805 (  3271 6834 ) resistor r=1.06125
r806 (  3271 3273 ) resistor r=0.474699
r807 (  3271 4444 ) resistor r=8.66667
r808 (  3259 4444 ) resistor r=30.4833
r809 (  3259 3261 ) resistor r=62.5553
r810 (  3258 3261 ) resistor r=9.14902
r811 (  3258 3259 ) resistor r=8.66667
r812 (  3256 3258 ) resistor r=0.482355
r813 (  3256 4444 ) resistor r=8.66667
r814 (  3254 6801 ) resistor r=1.06585
r815 (  3254 3256 ) resistor r=0.474699
r816 (  3254 4444 ) resistor r=8.66667
r817 (  3155 4402 ) resistor r=46.75
r818 (  3154 4396 ) resistor r=46.75
r819 (  3132 4388 ) resistor r=46.75
r820 (  3131 4374 ) resistor r=46.75
r821 (  3086 3154 ) resistor r=14.875
r822 (  3085 5915 ) resistor r=1.9611
r823 (  3085 3086 ) resistor r=20
r824 (  3084 3085 ) resistor r=20.3376
r825 (  3084 3155 ) resistor r=14.875
r826 (  3072 4523 ) resistor r=1.8568
r827 (  3072 4524 ) resistor r=1.8568
r828 (  3069 3072 ) resistor r=9.06554
r829 (  3069 5211 ) resistor r=0.508818
r830 (  3069 3072 ) resistor r=13
r831 (  3068 4532 ) resistor r=1.8568
r832 (  3065 3068 ) resistor r=9.06554
r833 (  3065 5211 ) resistor r=0.954485
r834 (  3065 3068 ) resistor r=13
r835 (  3064 4514 ) resistor r=1.8568
r836 (  3063 5929 ) resistor r=0.985582
r837 (  3063 3064 ) resistor r=8.66667
r838 (  3061 5211 ) resistor r=0.955531
r839 (  3061 3063 ) resistor r=0.295248
r840 (  3061 3064 ) resistor r=13
r841 (  3050 4444 ) resistor r=30.4833
r842 (  3050 3052 ) resistor r=62.5553
r843 (  3049 3052 ) resistor r=9.14902
r844 (  3049 3050 ) resistor r=8.66667
r845 (  3047 3049 ) resistor r=0.482355
r846 (  3047 4444 ) resistor r=8.66667
r847 (  3045 5365 ) resistor r=1.06585
r848 (  3045 3047 ) resistor r=0.474699
r849 (  3045 4444 ) resistor r=8.66667
r850 (  3035 3131 ) resistor r=14.875
r851 (  3033 3132 ) resistor r=14.875
r852 (  3032 5915 ) resistor r=0.355254
r853 (  3032 3035 ) resistor r=20.3376
r854 (  3032 3033 ) resistor r=20
r855 (  3021 4481 ) resistor r=1.8568
r856 (  3021 4482 ) resistor r=1.8568
r857 (  3018 3021 ) resistor r=9.06554
r858 (  3018 5177 ) resistor r=0.508818
r859 (  3018 3021 ) resistor r=13
r860 (  3017 4502 ) resistor r=1.8568
r861 (  3016 5929 ) resistor r=0.112757
r862 (  3016 3017 ) resistor r=8.66667
r863 (  3014 5177 ) resistor r=0.954485
r864 (  3014 3016 ) resistor r=0.295248
r865 (  3014 3017 ) resistor r=13
r866 (  3013 4460 ) resistor r=1.8568
r867 (  3010 3013 ) resistor r=9.06554
r868 (  3010 5177 ) resistor r=0.955531
r869 (  3010 3013 ) resistor r=13
r870 (  3000 5359 ) resistor r=0.978927
r871 (  3000 3001 ) resistor r=8.66667
r872 (  2999 4444 ) resistor r=30.4833
r873 (  2999 3001 ) resistor r=62.5553
r874 (  2998 3000 ) resistor r=0.482355
r875 (  2998 2999 ) resistor r=8.66667
r876 (  2996 5789 ) resistor r=0.391244
r877 (  2996 2998 ) resistor r=0.482355
r878 (  2996 4444 ) resistor r=8.66667
r879 (  2994 5789 ) resistor r=0.0834551
r880 (  2994 4444 ) resistor r=8.66667
r881 (  2981 4386 ) resistor r=46.75
r882 (  2980 4372 ) resistor r=46.75
r883 (  2947 4444 ) resistor r=30.4833
r884 (  2947 2949 ) resistor r=62.5553
r885 (  2946 2949 ) resistor r=9.14902
r886 (  2946 2947 ) resistor r=8.66667
r887 (  2944 2946 ) resistor r=0.482355
r888 (  2944 4444 ) resistor r=8.66667
r889 (  2942 6768 ) resistor r=1.06585
r890 (  2942 2944 ) resistor r=0.474699
r891 (  2942 4444 ) resistor r=8.66667
r892 (  2932 2980 ) resistor r=14.875
r893 (  2930 2981 ) resistor r=14.875
r894 (  2929 5897 ) resistor r=1.85525
r895 (  2929 2932 ) resistor r=20.3376
r896 (  2929 2930 ) resistor r=20
r897 (  2918 4478 ) resistor r=1.8568
r898 (  2918 4479 ) resistor r=1.8568
r899 (  2915 2918 ) resistor r=9.06554
r900 (  2915 5176 ) resistor r=0.508818
r901 (  2915 2918 ) resistor r=13
r902 (  2914 4499 ) resistor r=1.8568
r903 (  2913 2914 ) resistor r=8.66667
r904 (  2911 5903 ) resistor r=1.64575
r905 (  2911 2913 ) resistor r=0.695723
r906 (  2911 5176 ) resistor r=1.00393
r907 (  2911 2914 ) resistor r=13
r908 (  2910 4457 ) resistor r=1.8568
r909 (  2907 2910 ) resistor r=9.06554
r910 (  2907 5176 ) resistor r=0.955531
r911 (  2907 2910 ) resistor r=13